64
	Energy:      96.1740909
C        -10.02586        3.87940       -0.55420
C         -8.87316        4.63884       -0.76634
C        -10.13120        3.08137        0.58651
C         -7.81991        4.59396        0.15283
C         -9.08210        3.03516        1.50858
C         -7.90303        3.77442        1.30004
H         -9.18550        2.41103        2.38762
N         -6.86893        3.69984        2.28890
Cl       -11.34472        3.94098       -1.70908
H        -11.02595        2.49764        0.76196
H         -8.79449        5.27253       -1.64068
H         -6.96752        5.22691       -0.03841
H         -7.15153        3.35536        3.21925
C         -5.48611        4.05987        2.14545
N         -4.91310        4.07324        0.99375
N         -4.72088        4.26748        3.34103
H         -5.22648        4.11291        4.22593
C         -3.33308        4.62568        3.47359
N         -2.76016        4.59809        4.78192
N         -2.59664        4.97507        2.47324
H         -3.35777        4.31700        5.57413
C         -1.37217        4.91115        5.06988
H         -5.37858        3.83538        0.11061
H         -2.89993        5.05092        1.49877
H         -0.82475        5.23108        4.15786
C         -0.68543        3.67373        5.65058
H         -1.33927        5.74636        5.80241
H         -0.72308        2.85929        4.89364
H         -1.23772        3.34224        6.55782
C          0.77346        3.95400        6.03024
H          1.33559        4.30322        5.13625
C          1.43155        2.68187        6.57668
H          0.80038        4.75110        6.80570
H          1.42031        1.89872        5.78648
H          0.84590        2.31625        7.44937
C          2.87617        2.93387        7.02473
H          3.47840        3.31200        6.16950
C          3.50340        1.64208        7.55809
H          2.87825        3.69968        7.83144
H          3.53310        0.88136        6.74815
H          2.85202        1.23888        8.34958
N          4.86247        1.89067        8.01178
H          5.52746        2.21840        7.29471
C          5.36638        1.69995        9.34494
N          6.76743        1.92294        9.57144
C          7.52220        1.81043       10.79664
N          4.59710        1.34522       10.31415
N          8.93492        2.05989       10.73179
H          9.31422        2.22495        9.78681
C          9.88983        2.07963       11.80797
H          3.58909        1.17247       10.25209
H          7.30939        2.19996        8.73950
N          6.98392        1.47354       11.91652
H          5.99979        1.26123       12.09052
C          9.54987        2.01026       13.18160
C         11.25452        2.18861       11.47277
C         10.54419        2.04071       14.16490
C         11.88871        2.14079       13.80706
C         12.24291        2.21581       12.46021
H          8.54064        1.94488       13.54105
H         13.28433        2.29579       12.17562
H         11.55840        2.24820       10.43504
H         10.26489        1.98864       15.20994
Cl        13.12837        2.17731       15.04766
